Version 4
SHEET 1 880 680
WIRE -288 64 -416 64
WIRE 384 64 256 64
WIRE -416 112 -416 64
WIRE 256 112 256 64
WIRE -288 128 -288 64
WIRE 384 128 384 64
FLAG 256 224 0
FLAG 384 208 0
FLAG -416 224 0
FLAG -288 208 0
FLAG 304 176 vlinear
FLAG -368 176 vlog
SYMBOL pot_lin 272 208 R180
WINDOW 39 42 11 Left 0
SYMATTR SpiceLine R=10k Rot={rotation}
SYMATTR InstName X1
SYMBOL voltage 384 112 R0
WINDOW 123 0 0 Left 0
WINDOW 39 0 0 Left 0
SYMATTR InstName V1
SYMATTR Value 10
SYMBOL pot_log -400 208 R180
WINDOW 39 42 11 Left 2
SYMATTR InstName X2
SYMATTR SpiceLine R=10k Rot={rotation}
SYMBOL voltage -288 112 R0
WINDOW 123 0 0 Left 0
WINDOW 39 0 0 Left 0
SYMATTR InstName V2
SYMATTR Value 10
TEXT 0 232 Left 2 !.tran 0.1
TEXT 64 8 Left 2 !.step param rotation list 1 10 20 30 40 50 60 70 80 90 99
TEXT 88 -48 Left 2 !;.measure vlinear avg V(vlinear)
TEXT -544 -48 Left 2 !.measure vlog avg V(vlog)
